PV_Scenarios/PV_combined/scenario_100_combined/PV_combined80per.txt
New PVSystem.PV_1 phases=1 bus1=G2000SN2500_N274191_sec_5.3 kV=0.24 kVA=5.4 irradiance=1 Pmpp=4.5 %cutin=0.1 %cutout=0.1
New PVSystem.PV_2 phases=1 bus1=G2000UI5400_N283699_sec_5.3 kV=0.24 kVA=3.96 irradiance=1 Pmpp=3.3 %cutin=0.1 %cutout=0.1
New PVSystem.PV_3 phases=1 bus1=G2001RH0400_N274403_sec_2.2 kV=0.24 kVA=8.64 irradiance=1 Pmpp=7.2 %cutin=0.1 %cutout=0.1
New PVSystem.PV_4 phases=1 bus1=G2001RM4100_N274534_sec_3.2 kV=0.24 kVA=8.2892 irradiance=1 Pmpp=6.9077 %cutin=0.1 %cutout=0.1
New PVSystem.PV_5 phases=1 bus1=G2001SB8200_N274258_sec_7.3 kV=0.24 kVA=3.72 irradiance=1 Pmpp=3.1 %cutin=0.1 %cutout=0.1
New PVSystem.PV_6 phases=1 bus1=G2001SI3300_N274448_sec_3.1 kV=0.24 kVA=6.84 irradiance=1 Pmpp=5.7 %cutin=0.1 %cutout=0.1
New PVSystem.PV_7 phases=1 bus1=G2001SI5500_N274436_sec_5.1 kV=0.24 kVA=4.56 irradiance=1 Pmpp=3.8 %cutin=0.1 %cutout=0.1
New PVSystem.PV_8 phases=1 bus1=G2001TF3200_N284090_sec_2.3 kV=0.24 kVA=4.2 irradiance=1 Pmpp=3.5 %cutin=0.1 %cutout=0.1
New PVSystem.PV_9 phases=1 bus1=G2001UB4400_N283904_sec_8.3 kV=0.24 kVA=3 irradiance=1 Pmpp=2.5 %cutin=0.1 %cutout=0.1
New PVSystem.PV_10 phases=1 bus1=G2001UE3900_N284081_sec_4.3 kV=0.24 kVA=5.04 irradiance=1 Pmpp=4.2 %cutin=0.1 %cutout=0.1
New PVSystem.PV_11 phases=1 bus1=G2001WC3900_N284043_sec_5.3 kV=0.24 kVA=6.96 irradiance=1 Pmpp=5.8 %cutin=0.1 %cutout=0.1
New PVSystem.PV_12 phases=1 bus1=G2001WG8300_N284116_sec_2.3 kV=0.24 kVA=5.52 irradiance=1 Pmpp=4.6 %cutin=0.1 %cutout=0.1
New PVSystem.PV_13 phases=1 bus1=G2001XD7800_N284029_sec_1.1 kV=0.24 kVA=3.48 irradiance=1 Pmpp=2.9 %cutin=0.1 %cutout=0.1
New PVSystem.PV_14 phases=1 bus1=G2100AM9800_N283829_sec_1.1 kV=0.24 kVA=3.12 irradiance=1 Pmpp=2.6 %cutin=0.1 %cutout=0.1
New PVSystem.PV_15 phases=1 bus1=G2100BE8900_N283564_sec_2.3 kV=0.24 kVA=5.76 irradiance=1 Pmpp=4.8 %cutin=0.1 %cutout=0.1
New PVSystem.PV_16 phases=1 bus1=G2100BG5600_N283598_sec_1.3 kV=0.24 kVA=3.96 irradiance=1 Pmpp=3.3 %cutin=0.1 %cutout=0.1
New PVSystem.PV_17 phases=1 bus1=G2100BL8300_N283778_sec_7.1 kV=0.24 kVA=4.2 irradiance=1 Pmpp=3.5 %cutin=0.1 %cutout=0.1
New PVSystem.PV_18 phases=1 bus1=G2100CG0300_N283590_sec_1.3 kV=0.24 kVA=3.36 irradiance=1 Pmpp=2.8 %cutin=0.1 %cutout=0.1
New PVSystem.PV_19 phases=1 bus1=G2100CN4000_N283847_sec_4.3 kV=0.24 kVA=3.24 irradiance=1 Pmpp=2.7 %cutin=0.1 %cutout=0.1
New PVSystem.PV_20 phases=1 bus1=G2100DG3700_N283614_sec_14.3 kV=0.24 kVA=2.64 irradiance=1 Pmpp=2.2 %cutin=0.1 %cutout=0.1
New PVSystem.PV_21 phases=1 bus1=G2100DG3700_N283614_sec_20.3 kV=0.24 kVA=3.36 irradiance=1 Pmpp=2.8 %cutin=0.1 %cutout=0.1
New PVSystem.PV_22 phases=1 bus1=G2100DG6300_N283589_sec_5.3 kV=0.24 kVA=3 irradiance=1 Pmpp=2.5 %cutin=0.1 %cutout=0.1
New PVSystem.PV_23 phases=1 bus1=G2100DH9500_N292300_sec_5.3 kV=0.24 kVA=3.36 irradiance=1 Pmpp=2.8 %cutin=0.1 %cutout=0.1
New PVSystem.PV_24 phases=1 bus1=G2100DJ0500_N283740_sec_2.2 kV=0.24 kVA=8.88 irradiance=1 Pmpp=7.4 %cutin=0.1 %cutout=0.1
New PVSystem.PV_25 phases=1 bus1=G2100DJ0500_N283740_sec_5.2 kV=0.24 kVA=10.2 irradiance=1 Pmpp=8.5 %cutin=0.1 %cutout=0.1
New PVSystem.PV_26 phases=1 bus1=G2100DM6300_N283816_sec_3.3 kV=0.24 kVA=2.4 irradiance=1 Pmpp=2 %cutin=0.1 %cutout=0.1
New PVSystem.PV_27 phases=1 bus1=G2100DN3000_N283838_sec_2.3 kV=0.24 kVA=3.12 irradiance=1 Pmpp=2.6 %cutin=0.1 %cutout=0.1
New PVSystem.PV_28 phases=3 conn = delta bus1=G2100EG8700_N292270_sec_1.1.2.3 kV=0.48 kVA=30 irradiance=1 Pmpp=25 %cutin=0.1 %cutout=0.1
New PVSystem.PV_29 phases=3 conn = delta bus1=G2100EG8700_N292270_sec_6.1.2.3 kV=0.48 kVA=5.28 irradiance=1 Pmpp=4.4 %cutin=0.1 %cutout=0.1
New PVSystem.PV_30 phases=1 bus1=G2100EN2200_N292457_sec_8.3 kV=0.24 kVA=0.12 irradiance=1 Pmpp=0.1 %cutin=0.1 %cutout=0.1
New PVSystem.PV_31 phases=1 bus1=G2100EN2200_N292457_sec_34.3 kV=0.24 kVA=2.64 irradiance=1 Pmpp=2.2 %cutin=0.1 %cutout=0.1
New PVSystem.PV_32 phases=1 bus1=G2100EN2200_N292457_sec_37.3 kV=0.24 kVA=0.36 irradiance=1 Pmpp=0.3 %cutin=0.1 %cutout=0.1
New PVSystem.PV_33 phases=3 conn = delta bus1=G2100FG0000_N292260_sec_1.1.2.3 kV=0.48 kVA=12 irradiance=1 Pmpp=10 %cutin=0.1 %cutout=0.1
New PVSystem.PV_34 phases=3 conn = delta bus1=G2100FJ4400_N292396_sec_1.1.2.3 kV=0.48 kVA=14.16 irradiance=1 Pmpp=11.8 %cutin=0.1 %cutout=0.1
New PVSystem.PV_35 phases=1 bus1=G2100FO1600_N292502_sec_10.3 kV=0.24 kVA=2.52 irradiance=1 Pmpp=2.1 %cutin=0.1 %cutout=0.1
New PVSystem.PV_36 phases=1 bus1=G2100GN0400_N292471_sec_12.1 kV=0.24 kVA=2.64 irradiance=1 Pmpp=2.2 %cutin=0.1 %cutout=0.1
New PVSystem.PV_37 phases=1 bus1=G2100GN2400_N292466_sec_6.1 kV=0.24 kVA=13.346 irradiance=1 Pmpp=11.1217 %cutin=0.1 %cutout=0.1
New PVSystem.PV_38 phases=1 bus1=G2100GN4300_N292461_sec_2.1 kV=0.24 kVA=2.04 irradiance=1 Pmpp=1.7 %cutin=0.1 %cutout=0.1
New PVSystem.PV_39 phases=1 bus1=G2100GN4300_N292461_sec_10.1 kV=0.24 kVA=0.96 irradiance=1 Pmpp=0.8 %cutin=0.1 %cutout=0.1
New PVSystem.PV_40 phases=1 bus1=G2100GO6100_N292504_sec_1.1 kV=0.24 kVA=8.04 irradiance=1 Pmpp=6.7 %cutin=0.1 %cutout=0.1
New PVSystem.PV_41 phases=1 bus1=G2100HM3200_N292420_sec_32.3 kV=0.24 kVA=2.76 irradiance=1 Pmpp=2.3 %cutin=0.1 %cutout=0.1
New PVSystem.PV_42 phases=1 bus1=G2100HM9900_N292433_sec_32.3 kV=0.24 kVA=2.04 irradiance=1 Pmpp=1.7 %cutin=0.1 %cutout=0.1
New PVSystem.PV_43 phases=1 bus1=G2100IL1000_N292412_sec_44.3 kV=0.24 kVA=0.48 irradiance=1 Pmpp=0.4 %cutin=0.1 %cutout=0.1
New PVSystem.PV_44 phases=1 bus1=G2100IM6700_N292430_sec_6.3 kV=0.24 kVA=3 irradiance=1 Pmpp=2.5 %cutin=0.1 %cutout=0.1
New PVSystem.PV_45 phases=1 bus1=G2100OO7600_N300586_sec_3.1 kV=0.24 kVA=5.16 irradiance=1 Pmpp=4.3 %cutin=0.1 %cutout=0.1
New PVSystem.PV_46 phases=1 bus1=G2100PA2100_N300606_sec_1.1 kV=0.24 kVA=4.44 irradiance=1 Pmpp=3.7 %cutin=0.1 %cutout=0.1
New PVSystem.PV_47 phases=1 bus1=G2100RN1800_N300557_sec_1.3 kV=0.24 kVA=4.92 irradiance=1 Pmpp=4.1 %cutin=0.1 %cutout=0.1
New PVSystem.PV_48 phases=1 bus1=G2100RN1800_N300557_sec_7.3 kV=0.24 kVA=4.32 irradiance=1 Pmpp=3.6 %cutin=0.1 %cutout=0.1
New PVSystem.PV_49 phases=1 bus1=G2100RN9500_N312395_sec_1.3 kV=0.24 kVA=3.36 irradiance=1 Pmpp=2.8 %cutin=0.1 %cutout=0.1
New PVSystem.PV_50 phases=1 bus1=G2101AC2700_N284001_sec_2.3 kV=0.24 kVA=6.72 irradiance=1 Pmpp=5.6 %cutin=0.1 %cutout=0.1
New PVSystem.PV_51 phases=1 bus1=G2101BC6900_N283995_sec_4.2 kV=0.24 kVA=10.6533 irradiance=1 Pmpp=8.8778 %cutin=0.1 %cutout=0.1
New PVSystem.PV_52 phases=1 bus1=G2101BC7200_N283931_sec_1.1 kV=0.24 kVA=7.08 irradiance=1 Pmpp=5.9 %cutin=0.1 %cutout=0.1
New PVSystem.PV_53 phases=1 bus1=G2101BC7200_N283931_sec_6.1 kV=0.24 kVA=4.44 irradiance=1 Pmpp=3.7 %cutin=0.1 %cutout=0.1
New PVSystem.PV_54 phases=1 bus1=G2101BM0000_N284274_sec_3.1 kV=0.24 kVA=8.76 irradiance=1 Pmpp=7.3 %cutin=0.1 %cutout=0.1
New PVSystem.PV_55 phases=1 bus1=G2101CO1900_N284311_sec_2.1 kV=0.24 kVA=12.84 irradiance=1 Pmpp=10.7 %cutin=0.1 %cutout=0.1
New PVSystem.PV_56 phases=1 bus1=G2101DB2500_N283939_sec_2.1 kV=0.24 kVA=4.56 irradiance=1 Pmpp=3.8 %cutin=0.1 %cutout=0.1
New PVSystem.PV_57 phases=1 bus1=G2101DC0100_N283946_sec_5.1 kV=0.24 kVA=3.2114 irradiance=1 Pmpp=2.6762 %cutin=0.1 %cutout=0.1
New PVSystem.PV_58 phases=1 bus1=G2101EC8400_N292647_sec_3.1 kV=0.24 kVA=5.88 irradiance=1 Pmpp=4.9 %cutin=0.1 %cutout=0.1
New PVSystem.PV_59 phases=1 bus1=G2101GD1300_N292637_sec_14.1 kV=0.24 kVA=5.28 irradiance=1 Pmpp=4.4 %cutin=0.1 %cutout=0.1
New PVSystem.PV_60 phases=1 bus1=G2101HD3500_N292652_sec_7.1 kV=0.24 kVA=2.28 irradiance=1 Pmpp=1.9 %cutin=0.1 %cutout=0.1
New PVSystem.PV_61 phases=1 bus1=G2101HJ2800_N292786_sec_2.2 kV=0.24 kVA=17.16 irradiance=1 Pmpp=14.3 %cutin=0.1 %cutout=0.1
New PVSystem.PV_62 phases=3 conn = delta bus1=G2101JA6700_N1321243_sec_13.1.2.3 kV=0.48 kVA=12 irradiance=1 Pmpp=10 %cutin=0.1 %cutout=0.1
New PVSystem.PV_63 phases=1 bus1=G2101JF1200_N292702_sec_6.1 kV=0.24 kVA=8.64 irradiance=1 Pmpp=7.2 %cutin=0.1 %cutout=0.1
New PVSystem.PV_64 phases=1 bus1=G2101KA0900_N300672_sec_22.1 kV=0.24 kVA=3.12 irradiance=1 Pmpp=2.6 %cutin=0.1 %cutout=0.1
New PVSystem.PV_65 phases=1 bus1=G2101KA2300_N300631_sec_7.1 kV=0.24 kVA=1.32 irradiance=1 Pmpp=1.1 %cutin=0.1 %cutout=0.1
New PVSystem.PV_66 phases=1 bus1=G2101KA2300_N300631_sec_8.1 kV=0.24 kVA=4.2 irradiance=1 Pmpp=3.5 %cutin=0.1 %cutout=0.1
New PVSystem.PV_67 phases=1 bus1=G2101KA6200_N300623_sec_7.1 kV=0.24 kVA=2.88 irradiance=1 Pmpp=2.4 %cutin=0.1 %cutout=0.1
New PVSystem.PV_68 phases=1 bus1=G2101LA3600_N300650_sec_1.1 kV=0.24 kVA=2.88 irradiance=1 Pmpp=2.4 %cutin=0.1 %cutout=0.1
New PVSystem.PV_69 phases=1 bus1=G2101OA1800_N300620_sec_2.3 kV=0.24 kVA=2.3914 irradiance=1 Pmpp=1.9929 %cutin=0.1 %cutout=0.1
New PVSystem.PV_70 phases=1 bus1=G2101OA5500_N300636_sec_2.1 kV=0.24 kVA=4.08 irradiance=1 Pmpp=3.4 %cutin=0.1 %cutout=0.1
New PVSystem.PV_71 phases=1 bus1=G2101OB2900_N300670_sec_11.3 kV=0.24 kVA=3.72 irradiance=1 Pmpp=3.1 %cutin=0.1 %cutout=0.1
New PVSystem.PV_72 phases=1 bus1=G2101OB6900_N300737_sec_4.3 kV=0.24 kVA=3.36 irradiance=1 Pmpp=2.8 %cutin=0.1 %cutout=0.1
New PVSystem.PV_73 phases=1 bus1=G2101OC6200_N300746_sec_3.3 kV=0.24 kVA=3.96 irradiance=1 Pmpp=3.3 %cutin=0.1 %cutout=0.1
New PVSystem.PV_74 phases=1 bus1=G2101PB5100_N300681_sec_3.1 kV=0.24 kVA=2.64 irradiance=1 Pmpp=2.2 %cutin=0.1 %cutout=0.1
New PVSystem.PV_75 phases=1 bus1=G2101PB5100_N300681_sec_4.1 kV=0.24 kVA=3.96 irradiance=1 Pmpp=3.3 %cutin=0.1 %cutout=0.1
New PVSystem.PV_76 phases=1 bus1=G2101SB1800_N312602_sec_3.1 kV=0.24 kVA=3.84 irradiance=1 Pmpp=3.2 %cutin=0.1 %cutout=0.1
New PVSystem.PV_77 phases=1 bus1=G2102AF7100_N284372_sec_2.1 kV=0.24 kVA=10.9716 irradiance=1 Pmpp=9.143 %cutin=0.1 %cutout=0.1
New PVSystem.PV_78 phases=1 bus1=G2102BB1100_N284327_sec_1.1 kV=0.24 kVA=2.8765 irradiance=1 Pmpp=2.3971 %cutin=0.1 %cutout=0.1
New PVSystem.PV_79 phases=1 bus1=G2000SK5500_N274137_sec_7.2 kV=0.24 kVA=8.4 irradiance=1 Pmpp=7 %cutin=0.1 %cutout=0.1
New PVSystem.PV_80 phases=1 bus1=G2000UJ6500_N283747_sec_2.2 kV=0.24 kVA=12.96 irradiance=1 Pmpp=10.8 %cutin=0.1 %cutout=0.1
New PVSystem.PV_81 phases=1 bus1=G2000VH9100_N283615_sec_2.3 kV=0.24 kVA=7.514 irradiance=1 Pmpp=6.2617 %cutin=0.1 %cutout=0.1
New PVSystem.PV_82 phases=1 bus1=G2000XN9200_N283851_sec_1.3 kV=0.24 kVA=2.76 irradiance=1 Pmpp=2.3 %cutin=0.1 %cutout=0.1
New PVSystem.PV_83 phases=1 bus1=G2001SB6900_N274277_sec_1.3 kV=0.24 kVA=6 irradiance=1 Pmpp=5 %cutin=0.1 %cutout=0.1
New PVSystem.PV_84 phases=1 bus1=G2001SE4900_N274364_sec_3.3 kV=0.24 kVA=5.04 irradiance=1 Pmpp=4.2 %cutin=0.1 %cutout=0.1
New PVSystem.PV_85 phases=1 bus1=G2001SI2800_N274447_sec_3.1 kV=0.24 kVA=5.28 irradiance=1 Pmpp=4.4 %cutin=0.1 %cutout=0.1
New PVSystem.PV_86 phases=1 bus1=G2001TG2100_N284104_sec_3.3 kV=0.24 kVA=8.64 irradiance=1 Pmpp=7.2 %cutin=0.1 %cutout=0.1
New PVSystem.PV_87 phases=1 bus1=G2001TI4000_N284133_sec_2.2 kV=0.24 kVA=8.04 irradiance=1 Pmpp=6.7 %cutin=0.1 %cutout=0.1
New PVSystem.PV_88 phases=1 bus1=G2001TI5600_N284162_sec_2.2 kV=0.24 kVA=7.92 irradiance=1 Pmpp=6.6 %cutin=0.1 %cutout=0.1
New PVSystem.PV_89 phases=1 bus1=G2001UD9000_N283927_sec_7.3 kV=0.24 kVA=5.16 irradiance=1 Pmpp=4.3 %cutin=0.1 %cutout=0.1
New PVSystem.PV_90 phases=1 bus1=G2001VD4400_N284006_sec_8.3 kV=0.24 kVA=3 irradiance=1 Pmpp=2.5 %cutin=0.1 %cutout=0.1
New PVSystem.PV_91 phases=1 bus1=G2001VG6500_N284122_sec_2.3 kV=0.24 kVA=5.16 irradiance=1 Pmpp=4.3 %cutin=0.1 %cutout=0.1
New PVSystem.PV_92 phases=1 bus1=G2001WB9000_N283924_sec_3.3 kV=0.24 kVA=4.8 irradiance=1 Pmpp=4 %cutin=0.1 %cutout=0.1
New PVSystem.PV_93 phases=1 bus1=G2001WE7200_N1300454_sec_2.1 kV=0.24 kVA=4.32 irradiance=1 Pmpp=3.6 %cutin=0.1 %cutout=0.1
New PVSystem.PV_94 phases=1 bus1=G2001XJ9600_N284217_sec_8.3 kV=0.24 kVA=6.72 irradiance=1 Pmpp=5.6 %cutin=0.1 %cutout=0.1
New PVSystem.PV_95 phases=1 bus1=G2001YA0300_N283918_sec_1.3 kV=0.24 kVA=3.12 irradiance=1 Pmpp=2.6 %cutin=0.1 %cutout=0.1
New PVSystem.PV_96 phases=1 bus1=G2001YA0300_N283918_sec_2.3 kV=0.24 kVA=3.12 irradiance=1 Pmpp=2.6 %cutin=0.1 %cutout=0.1
New PVSystem.PV_97 phases=1 bus1=G2100AE9900_N283556_sec_3.3 kV=0.24 kVA=2.88 irradiance=1 Pmpp=2.4 %cutin=0.1 %cutout=0.1
New PVSystem.PV_98 phases=1 bus1=G2100BJ5900_N283761_sec_4.2 kV=0.24 kVA=4.9298 irradiance=1 Pmpp=4.1081 %cutin=0.1 %cutout=0.1
New PVSystem.PV_99 phases=1 bus1=G2100CJ3000_N283718_sec_2.2 kV=0.24 kVA=5.88 irradiance=1 Pmpp=4.9 %cutin=0.1 %cutout=0.1
New PVSystem.PV_100 phases=1 bus1=G2100CN4900_N283858_sec_6.3 kV=0.24 kVA=1.8 irradiance=1 Pmpp=1.5 %cutin=0.1 %cutout=0.1
New PVSystem.PV_101 phases=1 bus1=G2100DG1300_N283601_sec_14.3 kV=0.24 kVA=3.24 irradiance=1 Pmpp=2.7 %cutin=0.1 %cutout=0.1
New PVSystem.PV_102 phases=1 bus1=G2100DK1500_N283758_sec_2.2 kV=0.24 kVA=8.28 irradiance=1 Pmpp=6.9 %cutin=0.1 %cutout=0.1
New PVSystem.PV_103 phases=1 bus1=G2100DN4800_N283861_sec_9.3 kV=0.24 kVA=1.68 irradiance=1 Pmpp=1.4 %cutin=0.1 %cutout=0.1
New PVSystem.PV_104 phases=1 bus1=G2100DN4800_N283861_sec_31.3 kV=0.24 kVA=2.64 irradiance=1 Pmpp=2.2 %cutin=0.1 %cutout=0.1
New PVSystem.PV_105 phases=1 bus1=G2100DN4800_N283861_sec_54.3 kV=0.24 kVA=2.76 irradiance=1 Pmpp=2.3 %cutin=0.1 %cutout=0.1
New PVSystem.PV_106 phases=3 conn = delta bus1=G2100EG9700_N292283_sec_2.1.2.3 kV=0.48 kVA=6.24 irradiance=1 Pmpp=5.2 %cutin=0.1 %cutout=0.1
New PVSystem.PV_107 phases=1 bus1=G2100EK8800_N292347_sec_3.2 kV=0.24 kVA=3.1083 irradiance=1 Pmpp=2.5902 %cutin=0.1 %cutout=0.1
New PVSystem.PV_108 phases=1 bus1=G2100EK8800_N292347_sec_8.2 kV=0.24 kVA=6 irradiance=1 Pmpp=5 %cutin=0.1 %cutout=0.1
New PVSystem.PV_109 phases=1 bus1=G2100EN8600_N292479_sec_9.3 kV=0.24 kVA=2.04 irradiance=1 Pmpp=1.7 %cutin=0.1 %cutout=0.1
New PVSystem.PV_110 phases=1 bus1=G2100EN8600_N292479_sec_12.3 kV=0.24 kVA=4.44 irradiance=1 Pmpp=3.7 %cutin=0.1 %cutout=0.1
New PVSystem.PV_111 phases=1 bus1=G2100EO2100_N292498_sec_11.3 kV=0.24 kVA=1.68 irradiance=1 Pmpp=1.4 %cutin=0.1 %cutout=0.1
New PVSystem.PV_112 phases=1 bus1=G2100FI2200_N292320_sec_2.2 kV=0.24 kVA=6.12 irradiance=1 Pmpp=5.1 %cutin=0.1 %cutout=0.1
New PVSystem.PV_113 phases=1 bus1=G2100FO1600_N292502_sec_9.3 kV=0.24 kVA=2.52 irradiance=1 Pmpp=2.1 %cutin=0.1 %cutout=0.1
New PVSystem.PV_114 phases=3 conn = delta bus1=G2100GM5300_N292446_sec_3.1.2.3 kV=0.48 kVA=14.88 irradiance=1 Pmpp=12.4 %cutin=0.1 %cutout=0.1
New PVSystem.PV_115 phases=1 bus1=G2100GM9700_N292423_sec_26.3 kV=0.24 kVA=4.92 irradiance=1 Pmpp=4.1 %cutin=0.1 %cutout=0.1
New PVSystem.PV_116 phases=1 bus1=G2100GM9700_N292423_sec_28.3 kV=0.24 kVA=0.36 irradiance=1 Pmpp=0.3 %cutin=0.1 %cutout=0.1
New PVSystem.PV_117 phases=1 bus1=G2100GN7300_N292464_sec_9.1 kV=0.24 kVA=6.96 irradiance=1 Pmpp=5.8 %cutin=0.1 %cutout=0.1
New PVSystem.PV_118 phases=1 bus1=G2100HM9900_N292433_sec_12.3 kV=0.24 kVA=0.84 irradiance=1 Pmpp=0.7 %cutin=0.1 %cutout=0.1
New PVSystem.PV_119 phases=1 bus1=G2100HN5600_N292453_sec_5.3 kV=0.24 kVA=3.36 irradiance=1 Pmpp=2.8 %cutin=0.1 %cutout=0.1
New PVSystem.PV_120 phases=1 bus1=G2100HN5600_N292453_sec_10.3 kV=0.24 kVA=0.6 irradiance=1 Pmpp=0.5 %cutin=0.1 %cutout=0.1
New PVSystem.PV_121 phases=1 bus1=G2100HN5600_N292453_sec_28.3 kV=0.24 kVA=0.6 irradiance=1 Pmpp=0.5 %cutin=0.1 %cutout=0.1
New PVSystem.PV_122 phases=1 bus1=G2100HN5600_N292453_sec_37.3 kV=0.24 kVA=0.72 irradiance=1 Pmpp=0.6 %cutin=0.1 %cutout=0.1
New PVSystem.PV_123 phases=1 bus1=G2100IL1000_N292412_sec_35.3 kV=0.24 kVA=1.44 irradiance=1 Pmpp=1.2 %cutin=0.1 %cutout=0.1
New PVSystem.PV_124 phases=1 bus1=G2100IN7700_N292438_sec_7.3 kV=0.24 kVA=2.52 irradiance=1 Pmpp=2.1 %cutin=0.1 %cutout=0.1
New PVSystem.PV_125 phases=1 bus1=G2100NJ7400_N300463_sec_5.1 kV=0.24 kVA=11.64 irradiance=1 Pmpp=9.7 %cutin=0.1 %cutout=0.1
New PVSystem.PV_126 phases=1 bus1=G2100NL6900_N300504_sec_3.1 kV=0.24 kVA=4.32 irradiance=1 Pmpp=3.6 %cutin=0.1 %cutout=0.1
New PVSystem.PV_127 phases=1 bus1=G2100NM4100_N300509_sec_6.1 kV=0.24 kVA=3.96 irradiance=1 Pmpp=3.3 %cutin=0.1 %cutout=0.1
New PVSystem.PV_128 phases=1 bus1=G2100QN1500_N300555_sec_1.2 kV=0.24 kVA=1.92 irradiance=1 Pmpp=1.6 %cutin=0.1 %cutout=0.1
New PVSystem.PV_129 phases=1 bus1=G2100SP2100_N312536_sec_5.2 kV=0.24 kVA=5.52 irradiance=1 Pmpp=4.6 %cutin=0.1 %cutout=0.1
New PVSystem.PV_130 phases=1 bus1=G2101BI4200_N284183_sec_4.3 kV=0.24 kVA=3.24 irradiance=1 Pmpp=2.7 %cutin=0.1 %cutout=0.1
New PVSystem.PV_131 phases=1 bus1=G2101CB7700_N283923_sec_3.1 kV=0.24 kVA=5.28 irradiance=1 Pmpp=4.4 %cutin=0.1 %cutout=0.1
New PVSystem.PV_132 phases=1 bus1=G2101CG5400_N284126_sec_2.2 kV=0.24 kVA=13.4303 irradiance=1 Pmpp=11.1919 %cutin=0.1 %cutout=0.1
New PVSystem.PV_133 phases=1 bus1=G2101DG1700_N284117_sec_1.2 kV=0.24 kVA=8.6186 irradiance=1 Pmpp=7.1822 %cutin=0.1 %cutout=0.1
New PVSystem.PV_134 phases=1 bus1=G2101EB5200_N292564_sec_3.1 kV=0.24 kVA=3.96 irradiance=1 Pmpp=3.3 %cutin=0.1 %cutout=0.1
New PVSystem.PV_135 phases=1 bus1=G2101ED9500_N292665_sec_1.1 kV=0.24 kVA=5.1706 irradiance=1 Pmpp=4.3089 %cutin=0.1 %cutout=0.1
New PVSystem.PV_136 phases=1 bus1=G2101ED9700_N292597_sec_3.1 kV=0.24 kVA=5.64 irradiance=1 Pmpp=4.7 %cutin=0.1 %cutout=0.1
New PVSystem.PV_137 phases=1 bus1=G2101EK5100_N292797_sec_1.2 kV=0.24 kVA=5.88 irradiance=1 Pmpp=4.9 %cutin=0.1 %cutout=0.1
New PVSystem.PV_138 phases=1 bus1=G2101EN3000_N292846_sec_4.1 kV=0.24 kVA=6.72 irradiance=1 Pmpp=5.6 %cutin=0.1 %cutout=0.1
New PVSystem.PV_139 phases=1 bus1=G2101GC9700_N292633_sec_7.1 kV=0.24 kVA=2.04 irradiance=1 Pmpp=1.7 %cutin=0.1 %cutout=0.1
New PVSystem.PV_140 phases=1 bus1=G2101GD5100_N292637_sec_9.1 kV=0.24 kVA=2.16 irradiance=1 Pmpp=1.8 %cutin=0.1 %cutout=0.1
New PVSystem.PV_141 phases=1 bus1=G2101GD6200_N292642_sec_5.1 kV=0.24 kVA=1.44 irradiance=1 Pmpp=1.2 %cutin=0.1 %cutout=0.1
New PVSystem.PV_142 phases=1 bus1=G2101GD6200_N292642_sec_15.1 kV=0.24 kVA=3.72 irradiance=1 Pmpp=3.1 %cutin=0.1 %cutout=0.1
New PVSystem.PV_143 phases=1 bus1=G2101GD9500_N292651_sec_7.1 kV=0.24 kVA=1.44 irradiance=1 Pmpp=1.2 %cutin=0.1 %cutout=0.1
New PVSystem.PV_144 phases=1 bus1=G2101GN5000_N292870_sec_1.2 kV=0.24 kVA=8.4392 irradiance=1 Pmpp=7.0326 %cutin=0.1 %cutout=0.1
New PVSystem.PV_145 phases=1 bus1=G2101HB3400_N292556_sec_1.1 kV=0.24 kVA=1.32 irradiance=1 Pmpp=1.1 %cutin=0.1 %cutout=0.1
New PVSystem.PV_146 phases=1 bus1=G2101IJ4900_N292825_sec_5.3 kV=0.24 kVA=12.72 irradiance=1 Pmpp=10.6 %cutin=0.1 %cutout=0.1
New PVSystem.PV_147 phases=1 bus1=G2101JF8800_N300850_sec_3.1 kV=0.24 kVA=7.56 irradiance=1 Pmpp=6.3 %cutin=0.1 %cutout=0.1
New PVSystem.PV_148 phases=1 bus1=G2101KA2300_N300631_sec_11.1 kV=0.24 kVA=2.28 irradiance=1 Pmpp=1.9 %cutin=0.1 %cutout=0.1
New PVSystem.PV_149 phases=1 bus1=G2101KA2300_N300631_sec_18.1 kV=0.24 kVA=2.52 irradiance=1 Pmpp=2.1 %cutin=0.1 %cutout=0.1
New PVSystem.PV_150 phases=1 bus1=G2101KA6200_N300623_sec_16.1 kV=0.24 kVA=3.48 irradiance=1 Pmpp=2.9 %cutin=0.1 %cutout=0.1
New PVSystem.PV_151 phases=1 bus1=G2101OA1800_N300620_sec_4.3 kV=0.24 kVA=4.0616 irradiance=1 Pmpp=3.3847 %cutin=0.1 %cutout=0.1
New PVSystem.PV_152 phases=1 bus1=G2101QC7600_N300750_sec_6.3 kV=0.24 kVA=3.36 irradiance=1 Pmpp=2.8 %cutin=0.1 %cutout=0.1
New PVSystem.PV_153 phases=1 bus1=G2101SA6800_N312536_sec_10.2 kV=0.24 kVA=6.8256 irradiance=1 Pmpp=5.688 %cutin=0.1 %cutout=0.1
New PVSystem.PV_154 phases=1 bus1=G2102EA4000_N284317_sec_2.1 kV=0.24 kVA=2.4635 irradiance=1 Pmpp=2.0529 %cutin=0.1 %cutout=0.1
New PVSystem.PV_155 phases=1 bus1=G2102FF3700_N284394_sec_2.1 kV=0.24 kVA=8.52 irradiance=1 Pmpp=7.1 %cutin=0.1 %cutout=0.1
New PVSystem.PV_156 phases=1 bus1=G2000UI3100_N283702_sec_1.3 kV=0.24 kVA=3.36 irradiance=1 Pmpp=2.8 %cutin=0.1 %cutout=0.1
New PVSystem.PV_157 phases=1 bus1=G2000UJ6500_N283747_sec_6.2 kV=0.24 kVA=10.08 irradiance=1 Pmpp=8.4 %cutin=0.1 %cutout=0.1
New PVSystem.PV_158 phases=1 bus1=G2000UL3200_N283772_sec_3.2 kV=0.24 kVA=6.48 irradiance=1 Pmpp=5.4 %cutin=0.1 %cutout=0.1
New PVSystem.PV_159 phases=1 bus1=G2000VJ0200_N283716_sec_2.2 kV=0.24 kVA=5.4 irradiance=1 Pmpp=4.5 %cutin=0.1 %cutout=0.1
New PVSystem.PV_160 phases=1 bus1=G2000VO8200_N1309805_sec_1.3 kV=0.24 kVA=6 irradiance=1 Pmpp=5 %cutin=0.1 %cutout=0.1
New PVSystem.PV_161 phases=1 bus1=G2000XE9500_N283544_sec_1.3 kV=0.24 kVA=3.36 irradiance=1 Pmpp=2.8 %cutin=0.1 %cutout=0.1
New PVSystem.PV_162 phases=1 bus1=G2000XO7000_N283918_sec_1.3 kV=0.24 kVA=4.92 irradiance=1 Pmpp=4.1 %cutin=0.1 %cutout=0.1
New PVSystem.PV_163 phases=1 bus1=G2000XO7000_N283918_sec_3.3 kV=0.24 kVA=5.88 irradiance=1 Pmpp=4.9 %cutin=0.1 %cutout=0.1
New PVSystem.PV_164 phases=1 bus1=G2000YI1900_N283701_sec_1.1 kV=0.24 kVA=2.5686 irradiance=1 Pmpp=2.1405 %cutin=0.1 %cutout=0.1
New PVSystem.PV_165 phases=1 bus1=G2001RJ3400_N274458_sec_2.2 kV=0.24 kVA=8.6613 irradiance=1 Pmpp=7.2177 %cutin=0.1 %cutout=0.1
New PVSystem.PV_166 phases=1 bus1=G2001RJ3400_N274458_sec_4.2 kV=0.24 kVA=5.16 irradiance=1 Pmpp=4.3 %cutin=0.1 %cutout=0.1
New PVSystem.PV_167 phases=1 bus1=G2001SH3700_N274411_sec_9.1 kV=0.24 kVA=0.96 irradiance=1 Pmpp=0.8 %cutin=0.1 %cutout=0.1
New PVSystem.PV_168 phases=1 bus1=G2001SI5500_N274436_sec_3.1 kV=0.24 kVA=5.4 irradiance=1 Pmpp=4.5 %cutin=0.1 %cutout=0.1
New PVSystem.PV_169 phases=1 bus1=G2001SL6300_N274540_sec_2.2 kV=0.24 kVA=9.932 irradiance=1 Pmpp=8.2767 %cutin=0.1 %cutout=0.1
New PVSystem.PV_170 phases=1 bus1=G2001WA2400_N283917_sec_5.3 kV=0.24 kVA=5.16 irradiance=1 Pmpp=4.3 %cutin=0.1 %cutout=0.1
New PVSystem.PV_171 phases=1 bus1=G2001XE9200_N284049_sec_2.3 kV=0.24 kVA=5.04 irradiance=1 Pmpp=4.2 %cutin=0.1 %cutout=0.1
New PVSystem.PV_172 phases=1 bus1=G2001XJ9600_N284217_sec_3.3 kV=0.24 kVA=4.44 irradiance=1 Pmpp=3.7 %cutin=0.1 %cutout=0.1
New PVSystem.PV_173 phases=1 bus1=G2001YN2300_N284286_sec_3.1 kV=0.24 kVA=11.64 irradiance=1 Pmpp=9.7 %cutin=0.1 %cutout=0.1
New PVSystem.PV_174 phases=1 bus1=G2100AE4800_N283558_sec_4.3 kV=0.24 kVA=2.88 irradiance=1 Pmpp=2.4 %cutin=0.1 %cutout=0.1
New PVSystem.PV_175 phases=1 bus1=G2100AM2200_N283815_sec_3.1 kV=0.24 kVA=8.64 irradiance=1 Pmpp=7.2 %cutin=0.1 %cutout=0.1
New PVSystem.PV_176 phases=1 bus1=G2100BH6100_N283623_sec_2.3 kV=0.24 kVA=3 irradiance=1 Pmpp=2.5 %cutin=0.1 %cutout=0.1
New PVSystem.PV_177 phases=1 bus1=G2100CN4900_N283858_sec_4.3 kV=0.24 kVA=3.12 irradiance=1 Pmpp=2.6 %cutin=0.1 %cutout=0.1
New PVSystem.PV_178 phases=1 bus1=G2100CN5000_N283837_sec_1.3 kV=0.24 kVA=5.16 irradiance=1 Pmpp=4.3 %cutin=0.1 %cutout=0.1
New PVSystem.PV_179 phases=1 bus1=G2100DG3700_N283614_sec_11.3 kV=0.24 kVA=1.2 irradiance=1 Pmpp=1 %cutin=0.1 %cutout=0.1
New PVSystem.PV_180 phases=1 bus1=G2100DG6300_N283589_sec_11.3 kV=0.24 kVA=3.24 irradiance=1 Pmpp=2.7 %cutin=0.1 %cutout=0.1
New PVSystem.PV_181 phases=1 bus1=G2100DJ0100_N283721_sec_5.2 kV=0.24 kVA=12.6 irradiance=1 Pmpp=10.5 %cutin=0.1 %cutout=0.1
New PVSystem.PV_182 phases=1 bus1=G2100DN4800_N283861_sec_56.3 kV=0.24 kVA=1.68 irradiance=1 Pmpp=1.4 %cutin=0.1 %cutout=0.1
New PVSystem.PV_183 phases=1 bus1=G2100DO7000_N283865_sec_1.3 kV=0.24 kVA=0.96 irradiance=1 Pmpp=0.8 %cutin=0.1 %cutout=0.1
New PVSystem.PV_184 phases=1 bus1=G2100EG8500_N292275_sec_2.3 kV=0.24 kVA=2.28 irradiance=1 Pmpp=1.9 %cutin=0.1 %cutout=0.1
New PVSystem.PV_185 phases=1 bus1=G2100EK1100_N292334_sec_7.2 kV=0.24 kVA=8.16 irradiance=1 Pmpp=6.8 %cutin=0.1 %cutout=0.1
New PVSystem.PV_186 phases=1 bus1=G2100EK8800_N292347_sec_13.2 kV=0.24 kVA=3.48 irradiance=1 Pmpp=2.9 %cutin=0.1 %cutout=0.1
New PVSystem.PV_187 phases=1 bus1=G2100EM2500_N292390_sec_16.2 kV=0.24 kVA=5.6839 irradiance=1 Pmpp=4.7365 %cutin=0.1 %cutout=0.1
New PVSystem.PV_188 phases=1 bus1=G2100EO2100_N292498_sec_5.3 kV=0.24 kVA=2.88 irradiance=1 Pmpp=2.4 %cutin=0.1 %cutout=0.1
New PVSystem.PV_189 phases=1 bus1=G2100FJ2800_N292373_sec_1.2 kV=0.24 kVA=8.88 irradiance=1 Pmpp=7.4 %cutin=0.1 %cutout=0.1
New PVSystem.PV_190 phases=1 bus1=G2100FL3500_N292410_sec_5.2 kV=0.24 kVA=4.08 irradiance=1 Pmpp=3.4 %cutin=0.1 %cutout=0.1
New PVSystem.PV_191 phases=1 bus1=G2100GM9700_N292423_sec_37.3 kV=0.24 kVA=7.8 irradiance=1 Pmpp=6.5 %cutin=0.1 %cutout=0.1
New PVSystem.PV_192 phases=1 bus1=G2100GN4300_N292461_sec_5.1 kV=0.24 kVA=1.44 irradiance=1 Pmpp=1.2 %cutin=0.1 %cutout=0.1
New PVSystem.PV_193 phases=3 conn = delta bus1=G2100HG2900_N292296_sec_1.1.2.3 kV=0.48 kVA=290.0747 irradiance=1 Pmpp=241.7289 %cutin=0.1 %cutout=0.1
New PVSystem.PV_194 phases=1 bus1=G2100HM3200_N292420_sec_4.3 kV=0.24 kVA=2.88 irradiance=1 Pmpp=2.4 %cutin=0.1 %cutout=0.1
New PVSystem.PV_195 phases=1 bus1=G2100HN5600_N292453_sec_4.3 kV=0.24 kVA=3 irradiance=1 Pmpp=2.5 %cutin=0.1 %cutout=0.1
New PVSystem.PV_196 phases=1 bus1=G2100IL1000_N292412_sec_7.3 kV=0.24 kVA=3.72 irradiance=1 Pmpp=3.1 %cutin=0.1 %cutout=0.1
New PVSystem.PV_197 phases=1 bus1=G2100IL1000_N292412_sec_36.3 kV=0.24 kVA=2.76 irradiance=1 Pmpp=2.3 %cutin=0.1 %cutout=0.1
New PVSystem.PV_198 phases=1 bus1=G2100IN2700_N292475_sec_23.3 kV=0.24 kVA=2.88 irradiance=1 Pmpp=2.4 %cutin=0.1 %cutout=0.1
New PVSystem.PV_199 phases=1 bus1=G2100IN2700_N292475_sec_32.3 kV=0.24 kVA=2.76 irradiance=1 Pmpp=2.3 %cutin=0.1 %cutout=0.1
New PVSystem.PV_200 phases=1 bus1=G2100IN7700_N292438_sec_20.3 kV=0.24 kVA=0.84 irradiance=1 Pmpp=0.7 %cutin=0.1 %cutout=0.1
...
